 08/19/93 UW ARCHIVE           100.0  1962 W IEEE 14 Bus Test Case
BUS DATA FOLLOWS                            14 ITEMS
   1 Bus 1     HV  1  1  3 1.060    0.0      0.0      0.0      0.0     0.0     0.0  1.060     0.0     0.0   0.0    0.0        0
   2 Bus 2     HV  1  1  0 1.045  -4.98      0.2      0.1      0.0     0.0     0.0  1.045     0.0     0.0   0.0    0.0        0
   3 Bus 3     HV  1  1  0 1.010 -12.72      0.5      0.2      0.0     0.0     0.0  1.010     0.0     0.0   0.0    0.0        0
   4 Bus 4     HV  1  1  0 1.019 -10.33      0.4     0.05      0.0     0.0     0.0  0.0       0.0     0.0   0.0    0.0        0
-999 
BRANCH DATA FOLLOWS                         20 ITEMS
   1    2  1  1 1 0  0.02000   0.08000     0.0800     0     0     0    0 0  0.0       0.0 0.0    0.0     0.0    0.0   0.0
   1    3  1  1 1 0  0.06000   0.24000     0.0600     0     0     0    0 0  0.0       0.0 0.0    0.0     0.0    0.0   0.0
   2    3  1  1 1 0  0.04000   0.16000     0.0500     0     0     0    0 0  0.0       0.0 0.0    0.0     0.0    0.0   0.0
   2    4  1  1 1 0  0.04000   0.16000     0.0500     0     0     0    0 0  0.0       0.0 0.0    0.0     0.0    0.0   0.0
   3    4  1  1 1 0  0.01000   0.04000     0.0300     0     0     0    0 0  0.0       0.0 0.0    0.0     0.0    0.0   0.0
-999
LOSS ZONES FOLLOWS                     1 ITEMS
  1 IEEE 14 BUS
-99
INTERCHANGE DATA FOLLOWS                 1 ITEMS
 1    2 Bus 2     HV    0.0  999.99  IEEE14  IEEE 14 Bus Test Case
-9
TIE LINES FOLLOWS                     0 ITEMS
-999
END OF DATA
